%nprocshared=4
%mem=1GB
%chk=D:\DFT\Curcumin\UV_Vis.chk
# td b3lyp/6-31++g geom=connectivity

UV_Vis

0 1
 O                  6.89966052   -1.80257224   -1.08748418
 O                 -6.81594606   -2.07423006    0.79180392
 O                  7.05979813   -2.19381905    1.52853986
 O                 -7.22010592   -1.78365192   -1.81159078
 O                  0.95043979    2.68840785   -1.79683783
 O                 -0.84673525    2.15012431    2.21575818
 C                  3.99566972    0.27646266    0.07613421
 C                 -4.02214027    0.28425629   -0.02826943
 C                 -0.01383116    3.38265416    0.31048140
 C                  4.91667744   -0.32964155   -0.81506642
 C                 -4.87955154   -0.55698156    0.72211627
 C                  5.92804855   -1.14481692   -0.32829949
 C                 -5.93693264   -1.23838473    0.12583923
 C                  4.13424678    0.02855856    1.45883943
 C                 -4.26095897    0.41985398   -1.40903745
 C                  2.95056555    1.12276013   -0.48292374
 C                 -2.93697768    0.96394628    0.66700701
 C                  6.05181961   -1.38121948    1.05585675
 C                 -6.15936568   -1.08826711   -1.26163752
 C                  1.00095997    2.61859938   -0.54699339
 C                 -0.98122959    2.41767104    0.99873106
 C                  5.15178450   -0.79183406    1.94355248
 C                 -5.31842842   -0.26120846   -2.01132635
 C                  1.98746671    1.80981451    0.17900720
 C                 -2.01996067    1.81876385    0.15157956
 C                  6.88778959   -1.64293999   -2.53093022
 C                 -6.64228575   -2.26678379    2.22052106
 H                 -0.55456497    4.06763143   -0.34806145
 H                  0.50465608    3.94635400    1.09184463
 H                  4.81670459   -0.14518067   -1.87863485
 H                 -4.69743152   -0.66354992    1.78478106
 H                  3.44027721    0.47694029    2.16019979
 H                 -3.62378159    1.05222041   -2.01604240
 H                  2.94132816    1.21715449   -1.56886395
 H                 -2.85219725    0.76141555    1.73461456
 H                  5.26559465   -0.98910530    3.00250915
 H                 -5.49565501   -0.15178239   -3.07808460
 H                  1.89946312    1.78837561    1.26090022
 H                 -2.00941596    2.09053508   -0.89966779
 H                  7.59267554   -2.52067214    0.77210269
 H                 -7.29330971   -1.61771585   -2.77152514
 H                  7.02849698   -0.59233435   -2.80836508
 H                  5.95047423   -2.01752984   -2.95714614
 H                  7.72440411   -2.23772437   -2.89493669
 H                 -6.74226310   -1.32004911    2.76452377
 H                 -5.67005739   -2.72094936    2.44579803
 H                 -7.44248446   -2.94568396    2.51145085

 1 12 1.0 26 1.0
 2 13 1.0 27 1.0
 3 18 1.0 40 1.0
 4 19 1.0 41 1.0
 5 20 2.0
 6 21 2.0
 7 10 2.0 14 1.0 16 1.0
 8 11 2.0 15 1.0 17 1.0
 9 20 1.0 21 1.0 28 1.0 29 1.0
 10 12 1.0 30 1.0
 11 13 1.0 31 1.0
 12 18 2.0
 13 19 2.0
 14 22 2.0 32 1.0
 15 23 2.0 33 1.0
 16 24 2.0 34 1.0
 17 25 2.0 35 1.0
 18 22 1.0
 19 23 1.0
 20 24 1.0
 21 25 1.0
 22 36 1.0
 23 37 1.0
 24 38 1.0
 25 39 1.0
 26 42 1.0 43 1.0 44 1.0
 27 45 1.0 46 1.0 47 1.0
 28
 29
 30
 31
 32
 33
 34
 35
 36
 37
 38
 39
 40
 41
 42
 43
 44
 45
 46
 47

