## avogadro generated ORCA input file 
# Advanced Mode
# 
! B3LYP OPT FREQ 6-311++G(d,p)  NormalPrint Grid4  VeryTightSCF  MORead PAL4
%moinp "aspirin_opt.gbw"
%scf
	MaxIter 125
	CNVDIIS 1
	CNVSOSCF 1 
end
%output
	print[p_mos] true
	print[p_basis] 5
end

* xyz 0 1
   O        1.23558        0.76008        0.65621
   O       -0.84931       -2.82273       -0.34062
   O        1.15791       -1.94128        0.11676
   O        1.89305        0.70275       -1.51337
   C       -0.10644        0.72168        0.31575
   C       -0.75798       -0.48222       -0.00773
   C       -0.81342        1.91623        0.38615
   C       -2.13755       -0.43840       -0.26604
   C       -2.18038        1.93556        0.12849
   C       -2.84480        0.75509       -0.20172
   C       -0.02672       -1.77603       -0.06265
   C        2.17699        0.65575       -0.35041
   C        3.54472        0.49058        0.24282
   H       -0.27591        2.82045        0.64454
   H       -2.64707       -1.35872       -0.51693
   H       -2.72380        2.87227        0.18282
   H       -3.90896        0.76441       -0.40605
   H        3.69358        1.17882        1.07651
   H        4.29760        0.64934       -0.52698
   H        3.62221       -0.52945        0.62834
   H       -0.28769       -3.61137       -0.36510
*

