#Put Keywords Here, check Charge and Multiplicity.

 54670067

0  1
O           0.09320        -1.10660         0.64450
O          -1.34360         0.08920        -1.38630
O           0.83920         2.39010         0.28440
O          -3.89290        -0.20400        -0.33260
O           3.02200         0.56950        -0.60560
O           1.99150        -2.15600        -0.13760
C          -0.33970         0.26180         0.78530
C          -1.60590         0.45850        -0.03300
C           0.82120         1.02650         0.28870
C          -2.74640        -0.40820         0.48630
C           1.80770         0.22730        -0.10490
C           1.35360        -1.14810         0.11080
H          -0.51540         0.46090         1.84840
H          -1.91620         1.50920        -0.04320
H          -2.49890        -1.47350         0.43510
H          -3.00130        -0.14620         1.51790
H          -1.09990        -0.85220        -1.39860
H           0.00390         2.69570         0.67800
H          -4.60230        -0.76440         0.02570
H           3.50240        -0.25720        -0.78560

