%chk=D:\DFT\Ascorbic Acid_freq.chk
#p opt freq b3lyp/6-31g

54670067

0 1
 O                  0.09320000   -1.10660000    0.64450000
 O                 -1.34360000    0.08920000   -1.38630000
 O                  0.83920000    2.39010000    0.28440000
 O                 -3.89290000   -0.20400000   -0.33260000
 O                  3.02200000    0.56950000   -0.60560000
 O                  1.99150000   -2.15600000   -0.13760000
 C                 -0.33970000    0.26180000    0.78530000
 C                 -1.60590000    0.45850000   -0.03300000
 C                  0.82120000    1.02650000    0.28870000
 C                 -2.74640000   -0.40820000    0.48630000
 C                  1.80770000    0.22730000   -0.10490000
 C                  1.35360000   -1.14810000    0.11080000
 H                 -0.51540000    0.46090000    1.84840000
 H                 -1.91620000    1.50920000   -0.04320000
 H                 -2.49890000   -1.47350000    0.43510000
 H                 -3.00130000   -0.14620000    1.51790000
 H                 -1.09990000   -0.85220000   -1.39860000
 H                  0.00390000    2.69570000    0.67800000
 H                 -4.60230000   -0.76440000    0.02570000
 H                  3.50240000   -0.25720000   -0.78560000

