2
Coordinates from ORCA-job .\N2 E -109.563172661427
  N      -9.949430      3.892680      0.000000
  N      -8.829590      3.873450      0.000000
2
Coordinates from ORCA-job .\N2 E -109.563579197593
  N      -9.942907      3.892568      0.000000
  N      -8.836113      3.873562      0.000000
2
Coordinates from ORCA-job .\N2 E -109.563579479284
  N      -9.943079      3.892571      0.000000
  N      -8.835941      3.873559      0.000000
2
Coordinates from ORCA-job .\N2 E -109.563579480286
  N      -9.943072      3.892571      0.000000
  N      -8.835948      3.873559      0.000000
